  
       XFOIL         Version 6.99
  
 Calculated polar for: NASA SC(2)-0710 AIRFOIL                         
  
 1 1 Reynolds number fixed          Mach number fixed         
  
 xtrf =   1.000 (top)        1.000 (bottom)  
 Mach =   0.200     Re =    13.100 e 6     Ncrit =   9.000  9.000
  
   alpha    CL        CD       CDp       CM     Top_Xtr  Bot_Xtr  Top_Itr  Bot_Itr
  ------ -------- --------- --------- -------- -------- -------- -------- --------
   0.000   0.5549   0.00614   0.00042  -0.1302   0.0485   0.5621  63.9046 129.5261
   0.500   0.6146   0.00630   0.00039  -0.1305   0.0374   0.5829  65.2660 130.9063
   1.000   0.6740   0.00647   0.00034  -0.1307   0.0319   0.5943  66.0660 131.6654
   1.500   0.7331   0.00667   0.00025  -0.1308   0.0283   0.6002  66.6836 132.0585
   2.000   0.7923   0.00683   0.00011  -0.1309   0.0262   0.6118  67.0686 132.8374
   2.500   0.8511   0.00706  -0.00005  -0.1308   0.0217   0.6217  67.9839 133.5029
   3.000   0.9096   0.00733  -0.00025  -0.1306   0.0171   0.6291  69.1270 133.9903
   3.500   0.9679   0.00763  -0.00049  -0.1304   0.0133   0.6392  70.2618 134.6597
   4.000   1.0259   0.00795  -0.00080  -0.1300   0.0111   0.6441  71.0030 134.9766
   4.500   1.0842   0.00822  -0.00123  -0.1296   0.0108   0.6529  71.1020 135.5381
   5.000   1.1420   0.00854  -0.00174  -0.1291   0.0102   0.6588  71.3160 135.9179
   5.500   1.1994   0.00891  -0.00234  -0.1284   0.0096   0.6625  71.5541 136.1530
   6.000   1.2567   0.00930  -0.00305  -0.1276   0.0091   0.6692  71.7643 136.5755
   6.500   1.3136   0.00974  -0.00386  -0.1267   0.0086   0.6735  71.9540 136.8529
   7.500   1.4271   0.01058  -0.00603  -0.1246   0.0084   0.6842  72.0273 137.5234
   8.000   1.4835   0.01103  -0.00738  -0.1233   0.0083   0.6889  72.0641 137.8214
   8.500   1.5394   0.01152  -0.00892  -0.1219   0.0082   0.6914  72.1294 137.9747
   9.000   1.5948   0.01206  -0.01064  -0.1203   0.0080   0.6969  72.2230 138.3192
   9.500   1.6497   0.01266  -0.01256  -0.1186   0.0077   0.7026  72.3286 138.6787
  10.000   1.7037   0.01333  -0.01468  -0.1166   0.0075   0.7062  72.4323 138.9101
  10.500   1.7568   0.01407  -0.01700  -0.1143   0.0073   0.7092  72.5294 139.0928
  11.000   1.8088   0.01489  -0.01951  -0.1118   0.0070   0.7162  72.6395 139.5258
  11.500   1.8593   0.01584  -0.02218  -0.1090   0.0067   0.7209  72.7681 139.8177
  12.000   1.9075   0.01695  -0.02495  -0.1057   0.0065   0.7233  72.8656 139.9615
  12.500   1.9520   0.01834  -0.02764  -0.1018   0.0063   0.7263  72.9660 140.1498
  13.000   1.9955   0.01968  -0.03066  -0.0976   0.0062   0.7320  73.0054 140.5025
  13.500   2.0379   0.02092  -0.03410  -0.0933   0.0062   0.7359  73.0159 140.7409
  14.000   2.0766   0.02229  -0.03759  -0.0883   0.0062   0.7385  73.0307 140.8994
  14.500   2.1081   0.02380  -0.04093  -0.0823   0.0061   0.7399  73.0504 140.9839
  15.000   2.1265   0.02546  -0.04367  -0.0741   0.0061   0.7442  73.0733 141.2558
  15.500   2.1357   0.02750  -0.04576  -0.0650   0.0060   0.7493  73.0992 141.5792
  16.000   2.1435   0.03005  -0.04750  -0.0568   0.0060   0.7529  73.1296 141.8074
  16.500   2.1457   0.03326  -0.04844  -0.0490   0.0059   0.7551  73.1616 141.9458
  17.000   2.1412   0.03730  -0.04829  -0.0418   0.0059   0.7568  73.1935 142.0526
  17.500   2.1283   0.04251  -0.04653  -0.0359   0.0058   0.7623  73.2229 142.3997
  18.000   2.1060   0.04936  -0.04256  -0.0320   0.0058   0.7661  73.2481 142.6427
  18.500   2.0721   0.05889  -0.03511  -0.0316   0.0057   0.7689  73.2669 142.8142
  19.000   2.0208   0.07314  -0.02145  -0.0372   0.0057   0.7706  73.2747 142.9254
  19.500   1.9204   0.09829   0.00809  -0.0537   0.0058   0.7711  73.2511 142.9579
  20.000   1.3352   0.23199   0.25642  -0.1643   0.0061   0.7560  73.0616 141.9996
