  
       XFOIL         Version 6.99
  
 Calculated polar for: NACA 64-006                                     
  
 1 1 Reynolds number fixed          Mach number fixed         
  
 xtrf =   1.000 (top)        1.000 (bottom)  
 Mach =   0.200     Re =    12.400 e 6     Ncrit =   9.000  9.000
  
   alpha    CL        CD       CDp       CM     Top_Xtr  Bot_Xtr  Top_Itr  Bot_Itr
  ------ -------- --------- --------- -------- -------- -------- -------- --------
   0.000   0.0000   0.00453  -0.00020  -0.0000   0.3150   0.3150  69.5045 131.4955
   0.100   0.0112   0.00455  -0.00020  -0.0001   0.2898   0.3342  71.6348 133.1068
   0.200   0.0225   0.00457  -0.00019  -0.0001   0.2639   0.3524  73.8176 134.6459
   0.300   0.0335   0.00465  -0.00018  -0.0002   0.2147   0.3744  77.9676 136.4999
   0.400   0.0446   0.00474  -0.00017  -0.0003   0.1595   0.3987  82.6245 138.5528
   0.500   0.0561   0.00463  -0.00018  -0.0003   0.1796   0.4183  80.9339 140.2070
   0.600   0.0672   0.00464  -0.00018  -0.0004   0.1474   0.4505  83.6514 142.9271
   0.700   0.0783   0.00468  -0.00017  -0.0004   0.1110   0.4771  86.7414 145.1662
   0.800   0.0896   0.00468  -0.00017  -0.0005   0.0943   0.4986  88.1620 146.9750
   0.900   0.1009   0.00471  -0.00016  -0.0005   0.0776   0.5131  89.5827 148.2040
   1.000   0.1122   0.00473  -0.00015  -0.0005   0.0621   0.5248  90.9113 149.1850
   1.100   0.1236   0.00475  -0.00015  -0.0006   0.0486   0.5368  92.0721 150.1973
   1.200   0.1349   0.00477  -0.00014  -0.0006   0.0373   0.5494  93.0585 151.2643
   1.300   0.1463   0.00477  -0.00014  -0.0007   0.0338   0.5630  93.3699 152.4042
   1.400   0.1575   0.00471  -0.00014  -0.0007   0.0300   0.5969  93.7073 155.2658
   1.500   0.1688   0.00467  -0.00014  -0.0007   0.0264   0.6232  94.0235 157.4753
   1.600   0.1802   0.00467  -0.00014  -0.0007   0.0258   0.6326  94.0859 158.2739
   1.700   0.1917   0.00469  -0.00014  -0.0008   0.0227   0.6415  94.3687 159.0209
   1.800   0.2031   0.00471  -0.00014  -0.0008   0.0162   0.6512  94.9616 159.8377
   1.900   0.2145   0.00471  -0.00014  -0.0008   0.0147   0.6606  95.1359 160.6320
   2.000   0.2259   0.00473  -0.00014  -0.0009   0.0133   0.6698  95.3082 161.4007
   2.100   0.2373   0.00475  -0.00015  -0.0009   0.0117   0.6786  95.5063 162.1486
   2.200   0.2488   0.00478  -0.00013  -0.0009   0.0077   0.6877  96.0085 162.9119
   2.300   0.2603   0.00480  -0.00013  -0.0009   0.0077   0.6967  96.0105 163.6737
   2.400   0.2717   0.00481  -0.00014  -0.0009   0.0077   0.7051  96.0146 164.3751
   2.500   0.2832   0.00484  -0.00014  -0.0009   0.0076   0.7130  96.0162 165.0413
   2.600   0.2946   0.00486  -0.00014  -0.0009   0.0076   0.7220  96.0179 165.7989
   2.700   0.3060   0.00486  -0.00016  -0.0010   0.0076   0.7302  96.0241 166.4923
   2.800   0.3175   0.00485  -0.00020  -0.0010   0.0076   0.7377  96.0367 167.1227
